%chk=frag1_point3.chk

%nproc=4
%mem=6553MB
#P RwB97XD/6-311G(d,p)int(grid=ultrafine) scf

frag1_point3

0 1
H   -0.152346   1.762046   2.016730
H   -0.015495   2.066315   3.731437
H   0.845693   0.701111   3.026872
C   0.549982   1.739113   2.854830
C   1.755767   2.635895   2.606563
H   1.450640   3.663684   2.392468
H   2.417470   2.664189   3.477387
H   2.347146   2.291797   1.757388

