%chk=frag1_point4.chk

%nproc=4
%mem=4298MB
#P RwB97XD/6-311G(d,p)int(grid=ultrafine) scf

frag1_point4

0 1
H   -0.153061   1.758125   2.010922
H   -0.022223   2.070915   3.724584
H   0.840792   0.701368   3.028743
C   0.545771   1.738940   2.850968
C   1.752808   2.633936   2.602214
H   1.447971   3.659019   2.375011
H   2.406586   2.672822   3.476278
H   2.351265   2.282033   1.758296

